Version 4.1
SHEET 1 880 680
WIRE -128 -64 -320 -64
WIRE -112 -64 -128 -64
WIRE 48 -64 -32 -64
WIRE 192 -64 48 -64
WIRE 480 -64 272 -64
WIRE 592 -64 480 -64
WIRE 736 -64 672 -64
WIRE -320 -48 -320 -64
WIRE -320 -32 -320 -48
WIRE 48 128 48 -64
WIRE 144 128 48 128
WIRE 304 128 208 128
WIRE 480 240 480 -64
WIRE 560 240 480 240
WIRE 48 256 48 128
WIRE 176 256 48 256
WIRE 736 256 736 -64
WIRE 736 256 624 256
WIRE 304 272 304 128
WIRE 304 272 240 272
WIRE 336 272 304 272
WIRE 512 272 400 272
WIRE 560 272 512 272
WIRE 176 288 112 288
WIRE 112 352 112 288
WIRE -448 368 -448 352
WIRE -624 416 -624 352
WIRE -448 416 -448 368
WIRE -128 512 -128 -64
WIRE 224 512 -128 512
WIRE 512 512 512 272
WIRE 512 512 304 512
FLAG -320 32 0
FLAG -624 496 0
FLAG -448 496 0
FLAG -448 368 VEE
FLAG -624 352 VCC
FLAG 208 304 VEE
FLAG 208 240 VCC
FLAG 592 288 VEE
FLAG 592 224 VCC
FLAG 736 256 out
FLAG 112 352 0
SYMBOL diode 144 144 R270
WINDOW 0 32 32 VTop 2
WINDOW 3 0 32 VBottom 2
SYMATTR InstName D1
SYMBOL diode 336 288 R270
WINDOW 0 32 32 VTop 2
WINDOW 3 0 32 VBottom 2
SYMATTR InstName D2
SYMBOL OpAmps\\OP27 208 208 R0
SYMATTR InstName U1
SYMBOL OpAmps\\OP27 592 192 R0
SYMATTR InstName U2
SYMBOL res -16 -80 R90
WINDOW 0 0 56 VBottom 2
WINDOW 3 32 56 VTop 2
SYMATTR InstName R1
SYMATTR Value 10k
SYMBOL res 288 -80 R90
WINDOW 0 0 56 VBottom 2
WINDOW 3 32 56 VTop 2
SYMATTR InstName R2
SYMATTR Value 10k
SYMBOL res 688 -80 R90
WINDOW 0 0 56 VBottom 2
WINDOW 3 32 56 VTop 2
SYMATTR InstName R3
SYMATTR Value 10k
SYMBOL res 320 496 R90
WINDOW 0 0 56 VBottom 2
WINDOW 3 32 56 VTop 2
SYMATTR InstName R4
SYMATTR Value 5k
SYMBOL voltage -320 -64 R0
WINDOW 123 0 0 Left 0
WINDOW 39 0 0 Left 0
SYMATTR InstName V1
SYMATTR Value SINE(1 19m 3k)
SYMBOL voltage -624 400 R0
SYMATTR InstName V2
SYMATTR Value 15
SYMBOL voltage -448 400 R0
SYMATTR InstName V3
SYMATTR Value -15
TEXT -528 -352 Left 2 !.op
