Version 4.1
SHEET 1 1988 2436
WIRE -1360 -240 -1360 -320
WIRE -1152 -240 -1152 -320
WIRE -1008 -240 -1008 -304
WIRE -864 -240 -864 -304
WIRE -736 -240 -736 -304
WIRE -592 -240 -592 -304
WIRE -1008 -128 -1008 -160
WIRE -864 -128 -864 -160
WIRE -736 -128 -736 -160
WIRE -592 -128 -592 -160
WIRE -1360 -96 -1360 -160
WIRE -1152 -96 -1152 -160
WIRE -1088 496 -1312 496
WIRE -784 496 -1008 496
WIRE -656 496 -784 496
WIRE -352 496 -576 496
WIRE -224 496 -352 496
WIRE 80 496 -144 496
WIRE 208 496 80 496
WIRE 448 496 288 496
WIRE 592 496 448 496
WIRE 768 496 672 496
WIRE -1312 576 -1312 496
WIRE 0 640 -32 640
WIRE -864 656 -896 656
WIRE -432 656 -464 656
WIRE 368 656 336 656
WIRE 80 672 80 496
WIRE -784 688 -784 496
WIRE -352 688 -352 496
WIRE 0 688 0 640
WIRE 32 688 0 688
WIRE 448 688 448 496
WIRE -864 704 -864 656
WIRE -832 704 -864 704
WIRE -432 704 -432 656
WIRE -400 704 -432 704
WIRE 368 704 368 656
WIRE 400 704 368 704
WIRE 32 736 -16 736
WIRE -832 752 -880 752
WIRE -400 752 -448 752
WIRE 400 752 352 752
WIRE 656 864 656 832
WIRE -784 880 -784 768
WIRE -352 880 -352 768
WIRE -352 880 -784 880
WIRE 80 880 80 752
WIRE 80 880 -352 880
WIRE 448 880 448 768
WIRE 448 880 80 880
WIRE 624 880 448 880
WIRE 768 896 768 496
WIRE 768 896 688 896
WIRE 800 896 768 896
WIRE 624 912 544 912
WIRE 656 944 656 928
WIRE 544 976 544 912
WIRE 544 1088 544 1056
FLAG -1152 -96 0
FLAG -1152 -320 VDD
FLAG 544 1088 0
FLAG -1008 -128 0
FLAG -1008 -304 S1
FLAG -864 -128 0
FLAG -864 -304 S2
FLAG -736 -128 0
FLAG -736 -304 S3
FLAG -592 -128 0
FLAG -592 -304 S4
FLAG 800 896 out
FLAG 656 944 VDD
FLAG 656 832 VSS
FLAG -1312 576 0
FLAG -1360 -96 0
FLAG -1360 -320 VSS
FLAG 352 752 S1
FLAG 336 656 0
FLAG -16 736 S2
FLAG -32 640 0
FLAG -448 752 S3
FLAG -464 656 0
FLAG -880 752 S4
FLAG -896 656 0
DATAFLAG 848 896 ""
SYMBOL voltage -1152 -256 R0
WINDOW 123 0 0 Left 2
WINDOW 39 0 0 Left 2
SYMATTR InstName V2
SYMATTR Value 15
SYMBOL voltage 544 960 R0
WINDOW 123 24 124 Left 2
WINDOW 39 0 0 Left 2
SYMATTR Value2 AC 1
SYMATTR InstName V1
SYMATTR Value SINE(0 10m 3k)
SYMBOL res 192 512 R270
WINDOW 0 32 56 VTop 2
WINDOW 3 0 56 VBottom 2
SYMATTR InstName R1
SYMATTR Value 2.75k
SYMBOL voltage -1008 -256 R0
WINDOW 123 0 0 Left 2
WINDOW 39 0 0 Left 2
WINDOW 3 24 44 Left 2
SYMATTR Value 5
SYMATTR InstName V4
SYMBOL voltage -864 -256 R0
WINDOW 123 0 0 Left 2
WINDOW 39 0 0 Left 2
WINDOW 3 24 44 Left 2
SYMATTR Value 0
SYMATTR InstName V5
SYMBOL voltage -736 -256 R0
WINDOW 123 0 0 Left 2
WINDOW 39 0 0 Left 2
WINDOW 3 24 44 Left 2
SYMATTR Value 0
SYMATTR InstName V6
SYMBOL voltage -592 -256 R0
WINDOW 123 24 44 Left 2
WINDOW 39 0 0 Left 2
WINDOW 3 24 44 Left 2
SYMATTR Value 0
SYMATTR InstName V7
SYMBOL res 688 480 R90
WINDOW 0 0 56 VBottom 2
WINDOW 3 32 56 VTop 2
SYMATTR InstName Rf
SYMATTR Value 7k
SYMBOL res -672 512 R270
WINDOW 0 32 56 VTop 2
WINDOW 3 0 56 VBottom 2
SYMATTR InstName R3
SYMATTR Value 1.80k
SYMBOL res -240 512 R270
WINDOW 0 32 56 VTop 2
WINDOW 3 0 56 VBottom 2
SYMATTR InstName R2
SYMATTR Value 1.10k
SYMBOL res -1104 512 R270
WINDOW 0 32 56 VTop 2
WINDOW 3 0 56 VBottom 2
SYMATTR InstName R4
SYMATTR Value 4.5k
SYMBOL sw 448 672 R0
SYMATTR InstName S1
SYMATTR Value MYSW
SYMBOL sw 80 656 R0
SYMATTR InstName S2
SYMATTR Value MYSW
SYMBOL sw -352 672 R0
SYMATTR InstName S3
SYMATTR Value MYSW
SYMBOL sw -784 672 R0
SYMATTR InstName S4
SYMATTR Value MYSW
SYMBOL voltage -1360 -256 R0
WINDOW 123 0 0 Left 2
WINDOW 39 0 0 Left 2
SYMATTR InstName V8
SYMATTR Value -15
SYMBOL OpAmps\\UniversalOpAmp1 656 896 M180
SYMATTR InstName level1
SYMATTR Value2 Avol=1Meg GBW=100Meg Vos=0
TEXT -144 -248 Left 2 !.model MYSW SW(Ron=0.1 Roff=1Meg Vt=1)
TEXT -144 -288 Left 2 ;;op
TEXT -144 -168 Left 2 ;.ac dec 100 1 100meg
TEXT -136 -112 Left 2 !.tran 1n 10ms
TEXT -136 -80 Left 2 !.four 3k 10 V(out)
